Version 4
SHEET 1 880 680
WIRE -160 80 -176 80
WIRE -112 80 -160 80
WIRE 0 80 -48 80
WIRE 144 80 0 80
WIRE 272 80 144 80
WIRE 304 80 272 80
WIRE -160 112 -160 80
WIRE 0 112 0 80
WIRE 144 144 144 80
WIRE 272 144 272 80
WIRE 0 208 0 176
WIRE 144 224 144 208
WIRE 272 240 272 224
WIRE 0 304 0 288
FLAG 0 304 0
FLAG -160 192 0
FLAG 304 80 Vout
FLAG -176 80 Vin
FLAG 144 224 0
FLAG 272 240 0
SYMBOL cap -16 112 R0
SYMATTR InstName C1
SYMATTR Value {C1}
SYMBOL voltage -160 96 R0
WINDOW 123 24 124 Left 2
WINDOW 39 0 0 Left 0
SYMATTR Value2 AC 1
SYMATTR InstName V1
SYMATTR Value ""
SYMBOL res -16 192 R0
SYMATTR InstName R1
SYMATTR Value 10
SYMBOL cap 128 144 R0
SYMATTR InstName C2
SYMATTR Value 0.5µ
SYMATTR SpiceLine Rser=0.1
SYMBOL res 256 128 R0
SYMATTR InstName R2
SYMATTR Value 10k
SYMBOL BLM21BB050SN1 -80 80 R0
SYMATTR InstName U1
TEXT 176 344 Left 2 !.ac dec 30 1 100meg
TEXT 176 320 Left 2 !.param C1 10u
TEXT 176 368 Left 2 !.step dec param C1 1u 100u 10
