Version 4
SHEET 1 880 700
WIRE -48 -16 -48 -48
WIRE -48 96 -48 64
WIRE 128 96 -48 96
WIRE -256 112 -256 96
WIRE -256 112 -336 112
WIRE -336 128 -336 112
WIRE -256 128 -256 112
WIRE -48 128 -48 96
WIRE 128 128 96 128
WIRE 448 176 432 176
WIRE 464 176 448 176
WIRE 448 192 448 176
WIRE -736 224 -816 224
WIRE -656 224 -656 192
WIRE -656 224 -736 224
WIRE -512 224 -656 224
WIRE 96 224 96 208
WIRE 128 224 96 224
WIRE -816 240 -816 224
WIRE -736 240 -736 224
WIRE -656 240 -656 224
WIRE -48 256 -48 208
WIRE 112 256 -48 256
WIRE 128 256 112 256
WIRE -48 288 -48 256
WIRE 112 288 112 256
WIRE 304 304 304 288
WIRE -816 336 -816 304
WIRE -736 336 -736 304
WIRE -736 336 -816 336
WIRE -656 336 -656 320
WIRE -656 336 -736 336
WIRE -656 352 -656 336
WIRE -48 400 -48 368
FLAG 256 64 Vcc
FLAG -256 16 Vcc
FLAG -256 208 Vee
FLAG 256 288 Vee
FLAG -336 128 0
FLAG 448 272 0
FLAG -656 112 Vcc
FLAG -656 352 Vee
FLAG -512 224 Vref
FLAG 304 304 Vref
FLAG 112 368 Vref
FLAG 464 176 Vout
FLAG -48 -48 Vcc
FLAG -48 400 0
SYMBOL res 80 112 R0
SYMATTR InstName R1
SYMATTR Value {Rg}
SYMBOL voltage -256 0 R0
WINDOW 123 0 0 Left 0
WINDOW 39 24 124 Left 2
SYMATTR SpiceLine Rser=2
SYMATTR InstName V1
SYMATTR Value 3.3
SYMBOL voltage -256 112 R0
WINDOW 123 0 0 Left 0
WINDOW 39 0 0 Left 0
SYMATTR InstName V2
SYMATTR Value 0
SYMBOL res 432 176 R0
SYMATTR InstName R2
SYMATTR Value 100k
SYMBOL res 96 272 R0
SYMATTR InstName R3
SYMATTR Value 100k
SYMBOL res -672 96 R0
SYMATTR InstName R4
SYMATTR Value 10k
SYMBOL res -672 224 R0
SYMATTR InstName R5
SYMATTR Value 10k
SYMBOL cap -752 240 R0
SYMATTR InstName C1
SYMATTR Value 1µ
SYMBOL cap -832 240 R0
SYMATTR InstName C3
SYMATTR Value 100n
SYMBOL INA333 256 176 R0
SYMATTR InstName U1
SYMBOL res -64 112 R0
SYMATTR InstName R6
SYMATTR Value {Rmeas}
SYMBOL current -48 288 R0
WINDOW 123 0 0 Left 0
WINDOW 39 0 0 Left 0
SYMATTR InstName I1
SYMATTR Value {Imeas}
SYMBOL current -48 -16 R0
WINDOW 123 0 0 Left 0
WINDOW 39 0 0 Left 0
SYMATTR InstName I2
SYMATTR Value {Imeas}
TEXT 160 512 Left 2 !;.step param Vd 0 1 0.05
TEXT 160 488 Left 2 !;.param Vd 0.1
TEXT 160 544 Left 2 !;.dc V3 -0.1 0.1 0.02
TEXT 160 568 Left 2 !;.ac dec 10 1 100meg
TEXT -200 488 Left 2 !;.dc V3 0 0.1 0.02
TEXT 160 424 Left 2 !.param Rg 1k
TEXT 160 456 Left 2 !.param Rmeas 100
TEXT -200 608 Left 2 !.param Imeas 10n
TEXT -200 640 Left 2 !.step param Imeas -1u 1u 0.1u
TEXT -202 684 Left 2 !.op
