Version 4
SHEET 1 880 704
WIRE -48 -64 -48 -96
WIRE -48 48 -48 16
WIRE 112 48 112 16
WIRE 112 48 -48 48
WIRE 128 48 112 48
WIRE -48 80 -48 48
WIRE 128 80 96 80
WIRE -256 112 -256 96
WIRE -256 112 -336 112
WIRE -528 128 -752 128
WIRE -336 128 -336 112
WIRE -256 128 -256 112
WIRE 448 128 432 128
WIRE 464 128 448 128
WIRE 448 144 448 128
WIRE -656 160 -656 96
WIRE -752 176 -752 128
WIRE -688 176 -752 176
WIRE 96 176 96 160
WIRE 128 176 96 176
WIRE -528 192 -528 128
WIRE -528 192 -624 192
WIRE -464 192 -528 192
WIRE -432 192 -464 192
WIRE -992 208 -1072 208
WIRE -912 208 -912 176
WIRE -912 208 -992 208
WIRE -688 208 -912 208
WIRE -48 208 -48 160
WIRE 128 208 -48 208
WIRE -1072 224 -1072 208
WIRE -992 224 -992 208
WIRE -912 224 -912 208
WIRE -464 224 -464 192
WIRE -48 240 -48 208
WIRE 448 240 448 224
WIRE 304 256 304 240
WIRE -656 288 -656 224
WIRE -1072 320 -1072 288
WIRE -992 320 -992 288
WIRE -992 320 -1072 320
WIRE -912 320 -912 304
WIRE -912 320 -992 320
WIRE -464 320 -464 288
WIRE -912 336 -912 320
WIRE -48 352 -48 320
WIRE -432 528 -576 528
WIRE -576 544 -576 528
WIRE -432 544 -432 528
WIRE -576 640 -576 624
WIRE -432 640 -432 624
WIRE -432 640 -576 640
WIRE -576 656 -576 640
FLAG 256 16 Vcc
FLAG -256 16 Vcc
FLAG -256 208 Vee
FLAG 256 240 Vee
FLAG -336 128 0
FLAG -912 96 Vcc
FLAG -912 336 Vee
FLAG -432 192 Vref
FLAG 304 256 Vref
FLAG 464 128 Vout
FLAG -48 -96 Vcc
FLAG -656 96 Vcc
FLAG -656 288 Vee
FLAG -464 320 0
FLAG -576 656 0
FLAG 112 -64 Vref
FLAG -48 352 Vee
FLAG 448 240 Vee
SYMBOL res 80 64 R0
SYMATTR InstName R1
SYMATTR Value {Rg}
SYMBOL voltage -256 0 R0
WINDOW 123 0 0 Left 0
WINDOW 39 24 124 Left 2
SYMATTR SpiceLine Rser=2
SYMATTR InstName V1
SYMATTR Value 3.3
SYMBOL voltage -256 112 R0
WINDOW 123 0 0 Left 0
WINDOW 39 0 0 Left 0
SYMATTR InstName V2
SYMATTR Value 0
SYMBOL res 432 128 R0
SYMATTR InstName R2
SYMATTR Value 100k
SYMBOL res -928 80 R0
SYMATTR InstName R4
SYMATTR Value 10k
SYMBOL res -928 208 R0
SYMATTR InstName R5
SYMATTR Value 10k
SYMBOL cap -1008 224 R0
SYMATTR InstName C1
SYMATTR Value 1µ
SYMBOL cap -1088 224 R0
SYMATTR InstName C3
SYMATTR Value 100n
SYMBOL INA333 256 128 R0
SYMATTR InstName U1
SYMBOL res -64 64 R0
SYMATTR InstName R6
SYMATTR Value {Rmeas}
SYMBOL current -48 240 R0
WINDOW 123 0 0 Left 0
WINDOW 39 0 0 Left 0
SYMATTR InstName I1
SYMATTR Value {Imeas}
SYMBOL current -48 -64 R0
WINDOW 123 0 0 Left 0
WINDOW 39 0 0 Left 0
SYMATTR InstName I2
SYMATTR Value {Imeas}
SYMBOL voltage -432 528 R0
WINDOW 123 0 0 Left 0
WINDOW 39 0 0 Left 0
SYMATTR InstName V3
SYMATTR Value 0
SYMBOL res -592 528 R0
SYMATTR InstName R7
SYMATTR Value 1k
SYMBOL cap -480 224 R0
SYMATTR InstName C2
SYMATTR Value 100n
SYMBOL OpAmps\\UniversalOpAmp3 -656 192 R0
SYMATTR InstName U2
SYMATTR Value2 Avol=350k GBW=350k Slew=0.16
SYMBOL res 96 -80 R0
SYMATTR InstName R8
SYMATTR Value 100k
TEXT 160 512 Left 2 !;.step param Vd 0 1 0.05
TEXT 160 488 Left 2 !;.param Vd 0.1
TEXT 160 544 Left 2 !;.dc V3 -0.1 0.1 0.02
TEXT 160 568 Left 2 !;.ac dec 10 1 100meg
TEXT -200 488 Left 2 !;.dc V3 0 3.3 0.33
TEXT 160 424 Left 2 !.param Rg 10
TEXT 160 456 Left 2 !.param Rmeas 100
TEXT -200 608 Left 2 !.param Imeas 1u
TEXT -200 640 Left 2 !.step param Imeas -0.1u 0.1u 0.01u
TEXT -200 688 Left 2 !.op
TEXT -200 664 Left 2 !;.step param Imeas -1u 1u 0.1u
