Version 4
SHEET 1 880 680
WIRE 160 112 16 112
WIRE 336 128 304 128
WIRE 448 128 416 128
WIRE 512 128 448 128
WIRE 544 128 512 128
WIRE 448 160 448 128
WIRE 512 160 512 128
WIRE -96 192 -96 176
WIRE -96 192 -128 192
WIRE -96 208 -96 192
WIRE 448 240 448 224
WIRE 512 240 448 240
WIRE 160 256 160 144
WIRE 192 256 160 256
WIRE 304 256 304 128
WIRE 304 256 272 256
WIRE 448 272 448 240
WIRE 160 304 160 256
FLAG -96 96 VDD
FLAG 224 64 VDD
FLAG 544 128 Vout
FLAG -96 288 0
FLAG 224 192 0
FLAG -128 192 Vref
FLAG 16 192 Vref
FLAG 448 368 Vref
FLAG 160 384 0
FLAG 448 272 0
SYMBOL tlv6001 224 128 R0
SYMATTR InstName U1
SYMBOL voltage -96 80 R0
WINDOW 123 0 0 Left 0
WINDOW 39 0 0 Left 0
SYMATTR InstName V1
SYMATTR Value 1.65
SYMBOL res 432 112 R90
WINDOW 0 0 56 VBottom 2
WINDOW 3 32 56 VTop 2
SYMATTR InstName R1
SYMATTR Value 50
SYMBOL cap 432 160 R0
SYMATTR InstName C1
SYMATTR Value 2.2n
SYMBOL voltage 16 96 R0
WINDOW 123 24 124 Left 2
WINDOW 39 0 0 Left 0
SYMATTR Value2 AC 1
SYMATTR InstName V2
SYMATTR Value ""
SYMBOL voltage -96 192 R0
WINDOW 123 0 0 Left 0
WINDOW 39 0 0 Left 0
SYMATTR InstName V3
SYMATTR Value 1.65
SYMBOL res 496 144 R0
SYMATTR InstName R2
SYMATTR Value 510
SYMBOL res 288 240 R90
WINDOW 0 0 56 VBottom 2
WINDOW 3 32 56 VTop 2
SYMATTR InstName R3
SYMATTR Value 11k
SYMBOL res 144 288 R0
SYMATTR InstName R4
SYMATTR Value 100k
TEXT -40 320 Left 2 !.ac dec 1000 1 10meg
