Version 4
SHEET 1 2696 800
WIRE 1360 -400 1360 -416
WIRE 1936 -304 1824 -304
WIRE 1232 -288 1232 -336
WIRE 1360 -288 1360 -320
WIRE 1360 -288 1232 -288
WIRE 1376 -288 1360 -288
WIRE 480 -272 480 -288
WIRE 1232 -256 1232 -288
WIRE 1376 -256 1344 -256
WIRE 416 -224 384 -224
WIRE 1824 -224 1824 -304
WIRE 1840 -224 1824 -224
WIRE 592 -208 560 -208
WIRE 736 -208 592 -208
WIRE 1744 -208 1680 -208
WIRE 1936 -208 1936 -304
WIRE 1936 -208 1904 -208
WIRE 2032 -208 1936 -208
WIRE 2160 -208 2112 -208
WIRE 2208 -208 2160 -208
WIRE 272 -192 256 -192
WIRE 400 -192 352 -192
WIRE 416 -192 400 -192
WIRE 1744 -192 1744 -208
WIRE 1840 -192 1744 -192
WIRE 1744 -176 1744 -192
WIRE 1344 -160 1344 -176
WIRE 1376 -160 1344 -160
WIRE 2160 -144 2160 -208
WIRE 480 -128 480 -144
WIRE 1232 -128 1232 -176
WIRE 1376 -128 1232 -128
WIRE 1232 -96 1232 -128
WIRE 2160 -64 2160 -80
WIRE 400 -16 400 -192
WIRE 416 -16 400 -16
WIRE 592 -16 592 -208
WIRE 592 -16 496 -16
WIRE -16 96 -16 80
WIRE -336 192 -336 176
WIRE -16 192 -16 176
WIRE 32 192 -16 192
WIRE -16 208 -16 192
WIRE -176 256 -176 240
WIRE -336 288 -336 272
WIRE -336 288 -384 288
WIRE 384 288 368 288
WIRE -384 304 -384 288
WIRE -336 304 -336 288
WIRE -16 304 -16 288
WIRE 544 304 528 304
WIRE 576 304 576 288
WIRE 576 304 544 304
WIRE 608 304 576 304
WIRE 720 304 688 304
WIRE 832 304 784 304
WIRE -592 320 -720 320
WIRE 224 320 208 320
WIRE 368 320 304 320
WIRE 384 320 368 320
WIRE -720 336 -720 320
WIRE -592 352 -592 320
WIRE -176 352 -176 336
WIRE -336 400 -336 384
WIRE -720 448 -720 416
WIRE -592 448 -592 432
WIRE -592 448 -720 448
WIRE -720 464 -720 448
WIRE 368 480 368 320
WIRE 416 480 368 480
WIRE 544 480 544 304
WIRE 544 480 496 480
FLAG -336 176 VDD
FLAG 480 -288 VDD
FLAG -336 400 VSS
FLAG 480 -128 VSS
FLAG -384 304 0
FLAG -16 304 VSS
FLAG -16 80 VDD
FLAG -176 240 Vin
FLAG 2208 -208 Vout
FLAG -176 352 Vref
FLAG 448 240 VDD
FLAG 448 368 VSS
FLAG 208 320 Vin
FLAG -720 464 0
FLAG 832 304 Vn
FLAG 256 -192 Vn
FLAG 2160 -64 VSS
FLAG 1504 -320 VDD
FLAG 1504 -96 VSS
FLAG 736 -208 Vrefn
FLAG 1552 -96 Vrefn
FLAG 1360 -416 Vrefn
FLAG 576 288 Vnint
FLAG 32 192 Vref
FLAG 1232 -416 VDD
FLAG 1232 -16 VSS
FLAG 384 -224 Vref
FLAG 368 288 Vref
FLAG 1872 -240 VDD
FLAG 1872 -176 VSS
FLAG 1744 -96 VSS
SYMBOL voltage -336 176 R0
WINDOW 123 0 0 Left 0
WINDOW 39 24 124 Left 2
SYMATTR InstName V1
SYMATTR Value 3.3
SYMBOL voltage -336 288 R0
WINDOW 123 0 0 Left 0
WINDOW 39 0 0 Left 0
SYMATTR InstName V2
SYMATTR Value 0
SYMBOL res 0 192 R180
WINDOW 0 36 76 Left 2
WINDOW 3 36 40 Left 2
SYMATTR InstName R3
SYMATTR Value 10k
SYMBOL res -32 192 R0
SYMATTR InstName R4
SYMATTR Value 10k
SYMBOL voltage -176 240 R0
WINDOW 3 24 44 Left 2
WINDOW 123 24 124 Left 2
WINDOW 39 0 0 Left 0
SYMATTR Value 0
SYMATTR Value2 AC 1
SYMATTR InstName V3
SYMBOL res 368 -208 R90
WINDOW 0 0 56 VBottom 2
WINDOW 3 32 56 VTop 2
SYMATTR InstName R1
SYMATTR Value 10k
SYMBOL res 512 -32 R90
WINDOW 0 0 56 VBottom 2
WINDOW 3 32 56 VTop 2
SYMATTR InstName R2
SYMATTR Value 100k
SYMBOL res 512 464 R90
WINDOW 0 0 56 VBottom 2
WINDOW 3 32 56 VTop 2
SYMATTR InstName R6
SYMATTR Value 110k
SYMBOL res 320 304 R90
WINDOW 0 0 56 VBottom 2
WINDOW 3 32 56 VTop 2
SYMATTR InstName R7
SYMATTR Value 10k
SYMBOL cap 784 288 R90
WINDOW 0 0 32 VBottom 2
WINDOW 3 32 32 VTop 2
SYMATTR InstName C2
SYMATTR Value 220n
SYMBOL res -608 336 R0
SYMATTR InstName R9
SYMATTR Value 1k
SYMBOL voltage -720 320 R0
WINDOW 123 0 0 Left 0
WINDOW 39 0 0 Left 0
SYMATTR InstName V6
SYMATTR Value SINE(0 1 1k)
SYMBOL res 704 288 R90
WINDOW 0 0 56 VBottom 2
WINDOW 3 32 56 VTop 2
SYMATTR InstName R11
SYMATTR Value 1m
SYMBOL tsv991 448 304 R0
SYMATTR InstName U1
SYMBOL tsv991 480 -208 R0
SYMATTR InstName U2
SYMBOL res 2128 -224 R90
WINDOW 0 0 56 VBottom 2
WINDOW 3 32 56 VTop 2
SYMATTR InstName R12
SYMATTR Value 50
SYMBOL cap 2144 -144 R0
SYMATTR InstName C1
SYMATTR Value 10n
SYMBOL ina333 1504 -208 R0
SYMATTR InstName U3
SYMBOL res 1328 -272 R0
SYMATTR InstName R5
SYMATTR Value 10
SYMBOL res 1216 -272 R0
SYMATTR InstName R8
SYMATTR Value 100
SYMBOL res 1344 -416 R0
SYMATTR InstName R10
SYMATTR Value 10Meg
SYMBOL current 1232 -416 R0
WINDOW 123 0 0 Left 0
WINDOW 39 0 0 Left 0
SYMATTR InstName I1
SYMATTR Value 1n
SYMBOL current 1232 -96 R0
WINDOW 123 0 0 Left 0
WINDOW 39 0 0 Left 0
SYMATTR InstName I2
SYMATTR Value 1n
SYMBOL OpAmps\\UniversalOpAmp3 1872 -208 R0
SYMATTR InstName U4
SYMBOL res 1728 -192 R0
SYMATTR InstName R13
SYMATTR Value 10k
TEXT -64 712 Left 2 !.ac dec 10 10meg 30
TEXT -56 752 Left 2 !;.tran 100m
TEXT -64 784 Left 2 !;.noise V(Vout) V3 dec 10 1 100meg
TEXT 1984 -128 Left 2 ;fg=~318k
