Version 4.1
SHEET 1 880 680
WIRE -80 144 -160 144
WIRE -32 144 -80 144
WIRE 48 144 -32 144
WIRE 384 144 304 144
WIRE 464 144 384 144
WIRE 496 144 464 144
WIRE 576 176 576 144
WIRE -32 224 -32 208
WIRE 384 224 384 208
WIRE 176 272 176 240
FLAG -160 224 0
FLAG 176 272 0
FLAG -32 224 0
FLAG 384 224 0
FLAG 576 176 0
FLAG -80 144 IN
FLAG 464 144 OUT
SYMBOL PowerProducts\\LT1117-3.3 176 144 R0
SYMATTR InstName U1
SYMBOL voltage -160 128 R0
WINDOW 123 0 0 Left 0
WINDOW 39 0 0 Left 0
WINDOW 3 -164 137 Left 2
SYMATTR InstName V1
SYMATTR Value PULSE(0 5 0.5m 100u 100u 5m)
SYMBOL cap -48 144 R0
SYMATTR InstName C1
SYMATTR Value 10µ
SYMBOL cap 368 144 R0
SYMATTR InstName C2
SYMATTR Value 100µ
SYMATTR SpiceLine Rser=0.5
SYMBOL res 592 128 R90
WINDOW 0 0 56 VBottom 2
WINDOW 3 32 56 VTop 2
SYMATTR InstName R1
SYMATTR Value 33
TEXT -312 328 Left 2 !.tran 3m
