Version 4.1
SHEET 1 880 680
WIRE 96 -16 -160 -16
WIRE 272 -16 240 -16
WIRE 384 -16 352 -16
WIRE -64 112 -160 112
WIRE 176 112 176 -16
WIRE 176 112 16 112
WIRE 240 112 240 -16
WIRE 240 112 176 112
WIRE 288 112 240 112
WIRE 384 128 384 -16
WIRE 384 128 352 128
WIRE 432 128 384 128
WIRE 224 144 176 144
WIRE 288 144 224 144
FLAG 240 -96 0
FLAG 320 160 0
FLAG 240 -176 VDD
FLAG 320 96 VDD
FLAG 96 144 VDD
FLAG 224 224 0
FLAG -160 64 0
FLAG -160 192 0
FLAG 432 128 VOUT
SYMBOL res 192 -32 R90
WINDOW 0 0 56 VBottom 2
WINDOW 3 32 56 VTop 2
SYMATTR InstName R1
SYMATTR Value 10k
SYMBOL res 32 96 R90
WINDOW 0 0 56 VBottom 2
WINDOW 3 32 56 VTop 2
SYMATTR InstName R2
SYMATTR Value 4Meg
SYMBOL OpAmps\\UniversalOpAmp3 320 128 R0
SYMATTR InstName U1
SYMBOL res 208 128 R0
SYMATTR InstName R3
SYMATTR Value 1k
SYMBOL res 192 128 R90
WINDOW 0 0 56 VBottom 2
WINDOW 3 32 56 VTop 2
SYMATTR InstName R4
SYMATTR Value 1k
SYMBOL res 368 -32 R90
WINDOW 0 0 56 VBottom 2
WINDOW 3 32 56 VTop 2
SYMATTR InstName R5
SYMATTR Value 10k
SYMBOL voltage 240 -192 R0
WINDOW 123 0 0 Left 0
WINDOW 39 0 0 Left 0
SYMATTR InstName V1
SYMATTR Value 3.3
SYMBOL voltage -160 -32 R0
WINDOW 123 0 0 Left 0
WINDOW 39 0 0 Left 0
SYMATTR InstName V2
SYMATTR Value 0.8
SYMBOL voltage -160 96 R0
WINDOW 123 0 0 Left 0
WINDOW 39 0 0 Left 0
SYMATTR InstName V3
SYMATTR Value 0.8
TEXT -112 280 Left 2 !.dc V2 -3.5 3.5 0.1
