Version 4
SHEET 1 880 680
WIRE 144 -64 -48 -64
WIRE 272 -64 224 -64
WIRE -48 0 -48 -64
WIRE -48 0 -96 0
WIRE 176 32 160 32
WIRE 192 32 176 32
WIRE 272 32 272 -64
WIRE -48 80 -48 0
WIRE 176 144 176 32
WIRE 192 144 176 144
WIRE 272 160 272 32
WIRE 272 160 256 160
WIRE -48 176 -48 160
WIRE 192 176 -48 176
WIRE -48 192 -48 176
FLAG -48 272 Vref
FLAG -96 0 Vcm
FLAG -240 304 0
FLAG -336 304 0
FLAG 224 192 0
FLAG -240 224 Vref
FLAG -336 224 Vcc
FLAG 224 128 Vcc
FLAG 80 32 Vref
FLAG -480 304 0
FLAG -480 224 Vcm
SYMBOL OpAmps\\UniversalOpAmp3 224 160 R0
SYMATTR InstName U1
SYMBOL res -64 64 R0
SYMATTR InstName R1
SYMATTR Value 8Meg
SYMBOL res -64 176 R0
SYMATTR InstName R2
SYMATTR Value 2Meg
SYMBOL voltage -336 208 R0
WINDOW 123 0 0 Left 0
WINDOW 39 0 0 Left 0
SYMATTR InstName V1
SYMATTR Value 3.3
SYMBOL voltage -240 208 R0
WINDOW 123 0 0 Left 0
WINDOW 39 0 0 Left 0
SYMATTR InstName V2
SYMATTR Value 1.65
SYMBOL res 176 16 R90
WINDOW 0 0 56 VBottom 2
WINDOW 3 32 56 VTop 2
SYMATTR InstName R3
SYMATTR Value 100k
SYMBOL res 288 16 R90
WINDOW 0 0 56 VBottom 2
WINDOW 3 32 56 VTop 2
SYMATTR InstName R4
SYMATTR Value 11k
SYMBOL voltage -480 208 R0
WINDOW 123 0 0 Left 0
WINDOW 39 0 0 Left 0
SYMATTR InstName V3
SYMATTR Value 1.65
SYMBOL res 240 -80 R90
WINDOW 0 0 56 VBottom 2
WINDOW 3 32 56 VTop 2
SYMATTR InstName R5
SYMATTR Value 8Meg
TEXT -280 400 Left 2 !.dc V3 0 3.3 0.3
TEXT 48 424 Left 2 !.meas Icm AVG I(R1)+I(R5)
