Version 4
SHEET 1 880 680
WIRE -736 -64 -1120 -64
WIRE 144 -32 -112 -32
WIRE 144 -16 144 -32
WIRE -560 16 -560 0
WIRE -736 32 -736 16
WIRE -608 32 -736 32
WIRE -1120 48 -1120 -64
WIRE -736 48 -736 32
WIRE -112 80 -112 -32
WIRE -560 112 -560 96
WIRE 144 112 144 64
WIRE 240 112 240 96
WIRE 240 112 144 112
WIRE 336 112 240 112
WIRE 560 112 400 112
WIRE 624 112 560 112
WIRE -1120 144 -1120 128
WIRE -736 144 -736 128
WIRE -736 144 -1120 144
WIRE -608 144 -608 80
WIRE -608 144 -736 144
WIRE 144 144 144 112
WIRE 560 160 560 112
WIRE -112 176 -112 160
WIRE 144 240 144 208
WIRE 560 304 560 240
WIRE 144 320 144 304
FLAG -112 176 0
FLAG 144 320 0
FLAG 240 96 Vout
FLAG 624 112 Vfil
FLAG 560 304 0
FLAG -560 0 Vp
FLAG 144 144 Vp
FLAG -560 112 Vn
FLAG 144 208 Vn
SYMBOL zener 160 304 R180
WINDOW 0 24 64 Left 2
WINDOW 3 24 0 Left 2
SYMATTR InstName D1
SYMATTR Value Vref2V5
SYMATTR Description Diode
SYMATTR Type diode
SYMBOL voltage -112 64 R0
WINDOW 123 0 0 Left 0
WINDOW 39 24 124 Left 2
SYMATTR SpiceLine Rser=1
SYMATTR InstName V1
SYMATTR Value 3.3
SYMBOL res 128 -32 R0
SYMATTR InstName R1
SYMATTR Value 820
SYMBOL cap 400 96 R90
WINDOW 0 0 32 VBottom 2
WINDOW 3 32 32 VTop 2
SYMATTR InstName C1
SYMATTR Value 100n
SYMBOL bv -1120 32 R0
SYMATTR InstName B1
SYMATTR Value V=(100u*white(100e6*time))
SYMBOL res 544 144 R0
SYMATTR InstName R2
SYMATTR Value 100k
SYMBOL e -560 0 R0
SYMATTR InstName E1
SYMATTR Value 1
SYMBOL res -752 32 R0
SYMATTR InstName R3
SYMATTR Value 1k
SYMBOL res -752 -80 R0
SYMATTR InstName R4
SYMATTR Value 9k
TEXT -464 280 Left 2 !.tran 10u
TEXT -536 336 Left 2 !.model Vref2V5 D(BV=2.49 IBV=400u)
